! Example comment

Version,
    22.2;                    !- Version Identifier

! Example `Building` as multi-line object
Building,
    Exercise 1 Solution,     !- Name
    0.0,                     !- North Axis {deg}
    Suburbs,                 !- Terrain
    0.04,                    !- Loads Convergence Tolerance Value {W}
    0.40,                    !- Temperature Convergence Tolerance Value {deltaC}
    FullInteriorAndExterior, !- Solar Distribution
    25,                      !- Maximum Number of Warmup Days
    6;                       !- Minimum Number of Warmup Days

! Example `Building` as single-line object
Building, Exercise 1 Solution, 0.0,    Suburbs,     0.04,      0.40,     FullInteriorAndExterior,     25,     6;
