<%#INTERFACE
  parameter "case_name"
  parameter "ach", :default=>0.67
# test comment

# test different parameter domains
  parameter "south_doors", :default=>[34|'ft'], :domain=>"Array"
  parameter "overhangs", :default=>false, :domain=>"Boolean"
  parameter "foundation_type", :default=>"RAISED", :domain=>"String" # choices: FLOATING, SLAB, BASEMENT
  parameter "framing_factor_walls", :default=>0.25, :domain=>"Numeric" # Note 3 in Table 7.1 specifies 0.25 framing factor for exterior walls
  parameter "cooling_cap", :default=>38300|'btuh', :domain=>"Quantity" # cooling capacity, default from HVAC1a DX capacity
%>

<%
# test code block after #INTERFACE

# method to calculate properties of composite layer that combines framing + cavity layers
def make_composite_layer(r_others, framing_factor, cavity_material, framing_material)
  r_cavity = cavity_material[:r]
  r_cavity_path = r_others + r_cavity
  r_framing = framing_material[:t] / framing_material[:k]
  r_framing_path = r_others + r_framing
  u_assembly = (framing_factor/r_framing_path) + (1-framing_factor)/r_cavity_path
  r_assembly = 1/u_assembly
  r_composite = r_assembly - r_others

  k_composite = framing_material[:t] / r_composite

  mass_framing = framing_factor*framing_material[:rho]
  mass_cavity = (1 - framing_factor)*cavity_material[:rho]
  rho_composite = mass_framing + mass_cavity

  cp_composite = (mass_framing*framing_material[:cp] + mass_cavity*cavity_material[:cp]) / (mass_framing + mass_cavity)

  return {:k=>k_composite,:rho=>rho_composite,:cp=>cp_composite}
end
%>
  VERSION,22.2;

  Building,
    <%= case_name %>,                   !- Name
    0.0,                     !- North Axis {deg}
    Suburbs,                 !- Terrain
    0.04,                    !- Loads Convergence Tolerance Value
    0.004,                   !- Temperature Convergence Tolerance Value {deltaC}
    FullInteriorAndExterior, !- Solar Distribution
    ,                        !- Maximum Number of Warmup Days
    1;                       !- Minimum Number of Warmup Days

<%# one-line code example :;!#+*/@$^&(){}[]|\<>`~ #%>
<%# TODO: comment within one-line block doesn't end correctly, should stop at trailing \%\> %>
<%
# TODO: this is currently ending comment instead
%>
  SimulationControl,
<% if hvac_model == "DETAILED" %>
    Yes,                      !- Do Zone Sizing Calculation
    Yes,                      !- Do System Sizing Calculation
<% elsif hvac_model == "SIMPLE" %>
    No,                      !- Do Zone Sizing Calculation
    No,                      !- Do System Sizing Calculation
<% end %>
    No,                      !- Do Plant Sizing Calculation
    No,                      !- Run Simulation for Sizing Periods
    Yes,                     !- Run Simulation for Weather File Run Periods
    No,                      !- Do HVAC Sizing Simulation for Sizing Periods
    1;                       !- Maximum Number of HVAC Sizing Simulation Passes
